DC_DC_Converter
*SPICE Netlist generated by Advanced Sim server on 16.07.2024 14:43:48
.options MixedSimGenerated

.PLOT {V(Net1_1)} =PLOT(1) =AXIS(1)

*Selected Circuit Analyses:
.TRAN 0.1u 5u 0 0.1u

.END